Version 4
SHEET 1 880 680
WIRE 240 -224 16 -224
WIRE 736 -224 320 -224
WIRE 16 -160 16 -224
WIRE 48 -160 16 -160
WIRE 160 -160 128 -160
WIRE 464 -160 400 -160
WIRE 576 -160 544 -160
WIRE 16 -64 16 -160
WIRE 48 -64 16 -64
WIRE 160 -64 160 -160
WIRE 160 -64 112 -64
WIRE 576 -48 576 -160
WIRE 576 -48 528 -48
WIRE 608 -48 576 -48
WIRE 736 -48 736 -224
WIRE 736 -48 688 -48
WIRE 320 -32 288 -32
WIRE 400 -32 400 -160
WIRE 400 -32 384 -32
WIRE 464 -32 400 -32
WIRE 576 -16 528 -16
WIRE -96 16 -176 16
WIRE 16 16 16 -64
WIRE 16 16 -16 16
WIRE 48 16 16 16
WIRE 576 16 576 -16
WIRE 160 32 160 -64
WIRE 160 32 112 32
WIRE 192 32 160 32
WIRE 288 32 288 -32
WIRE 288 32 272 32
WIRE 384 32 288 32
WIRE 48 48 16 48
WIRE 736 48 736 -48
WIRE 736 48 448 48
WIRE -176 64 -176 16
WIRE 384 64 352 64
WIRE 16 96 16 48
WIRE 352 96 352 64
WIRE 160 112 160 32
WIRE 192 112 160 112
WIRE -176 192 -176 144
FLAG 576 16 0
FLAG 352 96 0
FLAG 16 96 0
FLAG -176 192 0
FLAG 192 112 Vo
SYMBOL OpAmps\\opamp 80 -32 R0
SYMATTR InstName U1
SYMBOL OpAmps\\opamp 416 112 M180
SYMATTR InstName U2
SYMBOL OpAmps\\opamp 496 -96 M0
SYMATTR InstName U3
SYMBOL voltage -176 48 R0
WINDOW 123 24 124 Left 2
WINDOW 39 0 0 Left 0
SYMATTR InstName V1
SYMATTR Value ""
SYMATTR Value2 AC 1
SYMBOL res 0 0 R90
WINDOW 0 0 56 VBottom 2
WINDOW 3 32 56 VTop 2
SYMATTR InstName R1
SYMATTR Value 1k
SYMBOL res 144 -176 R90
WINDOW 0 0 56 VBottom 2
WINDOW 3 32 56 VTop 2
SYMATTR InstName R2
SYMATTR Value 10k
SYMBOL res 288 16 R90
WINDOW 0 0 56 VBottom 2
WINDOW 3 32 56 VTop 2
SYMATTR InstName R3
SYMATTR Value 10k
SYMBOL res 560 -176 R90
WINDOW 0 0 56 VBottom 2
WINDOW 3 32 56 VTop 2
SYMATTR InstName R4
SYMATTR Value 100k
SYMBOL res 704 -64 R90
WINDOW 0 0 56 VBottom 2
WINDOW 3 32 56 VTop 2
SYMATTR InstName R5
SYMATTR Value 100k
SYMBOL res 336 -240 R90
WINDOW 0 0 56 VBottom 2
WINDOW 3 32 56 VTop 2
SYMATTR InstName R6
SYMATTR Value 10k
SYMBOL cap 112 -80 R90
WINDOW 0 0 32 VBottom 2
WINDOW 3 32 32 VTop 2
SYMATTR InstName C1
SYMATTR Value 100nF
SYMBOL cap 384 -48 R90
WINDOW 0 0 32 VBottom 2
WINDOW 3 32 32 VTop 2
SYMATTR InstName C2
SYMATTR Value 100nF
TEXT 480 96 Left 2 !.lib opamp.sub
TEXT 478 116 Left 2 !.ac dec 1000 1 1meg
